*Heading
** Job name: TwoGrains Model name: Tomography_12212012
** Generated by: Abaqus/CAE 6.11-1
*Preprint, echo=NO, model=NO, history=NO, contact=NO
**
** PARTS
**
*Part, name=Grain3
*Node
  98155,   7.53151131,   8.29307938,   0.99699086
  98935,   7.54703999,   8.28299427,   1.00326538
  98936,   7.51670837,   8.28053379,   1.00601006
  98942,   7.57481194,   8.30208969,   1.00326574
  98943,   7.55051136,   8.30729675,   1.00326574
  98945,   7.49305725,   8.30244255,   1.00465393
  98946,   7.49800491,   8.32595539,   1.00326574
  98947,   7.51925707,   8.30957794,   1.00213242
  98949,   7.47760963,   8.31771088,   1.00326574
  98950,   7.53343153,   8.31898308,   1.00332475
  98951,   7.54704237,   8.31771278,   1.00326622
  98952,   7.51449442,   8.33506775,   1.00326574
  98953,   7.56441164,   8.33938408,   1.00845623
  98954,   7.47876644,   8.34548187,   1.00326574
  98955,   7.49843884,   8.35936928,   1.00326574
  98956,   7.48038578,   8.35659218,   1.01437521
  98957,    7.5033989,   8.37127113,   1.00822437
  98958,   7.53005791,   8.36339951,   1.00317883
  98963,   7.52593422,   8.37354565,   1.01020384
  99761,   7.53141212,   8.27158546,   1.00488853
** ... 4348 like lines cut
*Element, type=C3D4
     56, 102810, 102813, 102060, 103561
     90, 118646, 118649, 118620, 118623
    127, 118486, 118403, 118402, 118487
    206, 101296, 101299, 134510, 100491
    331, 118588, 118553, 163436, 118586
    368, 111943, 111942, 113530, 118790
    457, 118617, 118619, 118620, 118623
    613, 108766, 108302, 108765, 118964
    708,  98951, 130158,  98943, 127482
    711, 113135, 112752, 113132, 119033
    770, 102785, 103534, 105030, 119074
    848, 105795, 108319, 105064, 119130
   1278, 165158, 109764, 446099, 107244
   1374, 113146, 113531, 113920, 113530
   1375, 113530, 113531, 112775, 113146
   1432, 115381, 115062, 114701, 119597
   1441, 116674, 116427, 116426, 119601
   1464, 112330, 111934, 113142, 113143
   1878, 114698, 115377, 115375, 119918
   1933, 100485, 100488, 138617, 101294
** ... 21381 like lines cut
*Elset, elset=Grain3
     56,     90,    127,    206,    331,    368,    457,    613,    708,    711,    770,    848,   1278,   1374,   1375,   1432
   1441,   1464,   1878,   1933,   1941,   2072,   2177,   2215,   2288,   2610,   2690,   3111,   3132,   3170,   3292,   3328
   3397,   3498,   3573,   3773,   3786,   3796,   3873,   3979,   4370,   4382,   4459,   4463,   4761,   4765,   4766,   4979
   4991,   5024,   5111,   5112,   5117,   5167,   5211,   5212,   5355,   5737,   6017,   6295,   6387,   6398,   6474,   6475
   6476,   6765,   6924,   7447,   7591,   7640,   7801,   8180,   8261,   8262,   8586,   8814,   8951,   9306,   9543,   9646
   9848,   9886,  10243,  10429,  10569,  10570,  10596,  10605,  10640,  10753,  10901,  10925,  11063,  11064,  11243,  11325
  11381,  11393,  11680,  12112,  12113,  12149,  12191,  12192,  12303,  12394,  12447,  12465,  12873,  12950,  13122,  13440
  13441,  13591,  13592,  13730,  13772,  13835,  13864,  13988,  14062,  14082,  14141,  14242,  14244,  14245,  14984,  15331
  15364,  15749,  15750,  15751,  15752,  15753,  16050,  16182,  16232,  16393,  16409,  16518,  16527,  16545,  16640,  16895
  16896,  16972,  17028,  17292,  17319,  17326,  17586,  17587,  17636,  17637,  17638,  17691,  17692,  17978,  18092,  18202
  18203,  18318,  18341,  18379,  18480,  18549,  18550,  18621,  18714,  18740,  18774,  18775,  18776,  18839,  18875,  18962
  19056,  19057,  19129,  19450,  19499,  19915,  19978,  19997,  20328,  20330,  20513,  20569,  20570,  20580,  20643,  20644
  20902,  20903,  20904,  21340,  21414,  21437,  21593,  21850,  21892,  22016,  22028,  22033,  22034,  22035,  22036,  22129
  22237,  22295,  22296,  22371,  22465,  22492,  22497,  22608,  22609,  22658,  22734,  22738,  22739,  22740,  22741,  22742
  22743,  22744,  23160,  23407,  23713,  23714,  23831,  24005,  24154,  24298,  24299,  24323,  24356,  24392,  24466,  24467
  24468,  24567,  24602,  24603,  24604,  24668,  24717,  25039,  25381,  25628,  26053,  26068,  26187,  26385,  26386,  26514
  26566,  26687,  26689,  26690,  26740,  26741,  26742,  26792,  26952,  27087,  27143,  27144,  27145,  27146,  27203,  27290
  27519,  27523,  27524,  27525,  27526,  27707,  28043,  28317,  28318,  28319,  28558,  28712,  28779,  28857,  28858,  28981
  29131,  29132,  29213,  29254,  29255,  29322,  29847,  30009,  30097,  30582,  31217,  31218,  31283,  31284,  31391,  31426
  31438,  31457,  31534,  31570,  31571,  31633,  32135,  32488,  32788,  33130,  33170,  33178,  33421,  33422,  33617,  33618
** ... 1318 like lines cut
*Nset, nset=Grain3_Nodes
  98155,  98935,  98936,  98942,  98943,  98945,  98946,  98947,  98949,  98950,  98951,  98952,  98953,  98954,  98955,  98956
  98957,  98958,  98963,  99761,  99762,  99763,  99764,  99765,  99767,  99770,  99772,  99773,  99774,  99775,  99776,  99777
  99778,  99779,  99780,  99781,  99782,  99783,  99784, 100474, 100475, 100476, 100477, 100479, 100480, 100481, 100482, 100483
 100484, 100485, 100487, 100488, 100490, 100491, 100492, 100493, 100494, 100495, 100496, 100497, 100498, 100499, 100500, 100501
 100503, 100505, 100518, 100519, 101285, 101286, 101287, 101288, 101290, 101291, 101293, 101294, 101296, 101297, 101298, 101299
 101300, 101301, 101302, 101303, 101304, 101305, 101306, 101307, 101308, 101309, 101310, 101311, 101312, 101313, 101314, 101315
 101316, 101317, 101321, 101322, 101323, 101324, 101325, 101326, 101327, 101328, 101329, 101330, 101331, 101332, 101333, 101334
 101335, 101336, 101337, 101338, 102027, 102029, 102030, 102037, 102038, 102039, 102040, 102041, 102042, 102043, 102044, 102045
 102046, 102047, 102048, 102049, 102050, 102051, 102052, 102053, 102054, 102055, 102056, 102057, 102058, 102059, 102060, 102061
 102062, 102063, 102064, 102065, 102066, 102067, 102068, 102069, 102070, 102071, 102072, 102073, 102074, 102075, 102076, 102782
 102783, 102785, 102787, 102788, 102789, 102790, 102794, 102795, 102798, 102799, 102800, 102801, 102802, 102803, 102804, 102805
 102806, 102807, 102808, 102809, 102810, 102811, 102812, 102813, 102814, 102815, 102816, 102817, 102818, 102819, 102820, 102821
 102822, 102823, 102824, 102825, 103534, 103535, 103536, 103537, 103539, 103541, 103545, 103548, 103549, 103550, 103551, 103552
 103553, 103554, 103555, 103556, 103557, 103558, 103559, 103560, 103561, 103562, 103563, 103564, 103565, 103566, 103567, 103568
 103569, 103570, 103571, 103572, 103573, 103574, 103575, 103576, 104320, 104321, 104322, 104324, 104326, 104327, 104329, 104335
 104336, 104337, 104338, 104339, 104340, 104341, 104342, 104343, 104344, 104345, 104346, 104347, 104348, 104349, 104350, 104351
 104352, 104353, 105028, 105029, 105030, 105031, 105032, 105034, 105035, 105038, 105039, 105042, 105044, 105045, 105046, 105047
 105048, 105049, 105050, 105051, 105052, 105053, 105054, 105055, 105056, 105057, 105058, 105059, 105060, 105061, 105062, 105063
 105064, 105760, 105761, 105762, 105765, 105770, 105771, 105772, 105773, 105774, 105775, 105776, 105777, 105778, 105779, 105780
 105781, 105782, 105783, 105784, 105785, 105786, 105787, 105788, 105789, 105790, 105791, 105792, 105793, 105794, 105795, 105796
** ... 69 like lines cut
** Section: Grain
*Solid Section, elset=Grain3, material=Sand
,
*End Part
**  
*Part, name=Grain4
*Node
  37455,   7.52635002,   8.36133385,  0.536751032
  37456,   7.51926804,   8.38713932,   0.53808403
  37457,   7.53373003,   8.38178539,  0.538195789
  37458,   7.51232433,   8.36631107,  0.545026779
  37460,   7.57503414,   8.40114594,  0.537616372
  37461,   7.49693966,   8.39732361,  0.547905684
  37462,   7.51579666,   8.40797043,  0.538083673
  37463,   7.53872204,   8.42451954,  0.538958073
  37464,   7.55033875,   8.41831684,  0.538311958
  37465,   7.56350899,   8.42757702,  0.547099113
  37466,   7.50768042,   8.42630672,  0.537746727
  37468,   7.49496937,   8.42185974,  0.548498154
  37469,   7.53430843,   8.43885994,  0.549299955
  38336,    7.5097065,   8.32833099,  0.547597885
  38337,   7.55653572,   8.33893585,  0.548004627
  38339,   7.49625015,   8.35806847,  0.547212839
  38340,   7.49374676,   8.33854198,  0.549720764
  38341,   7.52650261,   8.35294533,  0.544692636
  38342,   7.54009628,   8.35936928,   0.54502672
  38344,   7.54039097,     8.377841,  0.545072496
** ... 7095 like lines cut
*Element, type=C3D4
    334,  52527,  54292,  52526, 118766
    493,  52512,  54270,  54274, 118877
    515,  66054,  63976,  63978, 118895
    521,  63980,  64914,  67082, 118901
    522,  49872,  49065,  49066, 118902
    622,  97273,  98192,  98190, 118971
    754,  96520,  98161,  96516, 119062
    896, 141122,  67076, 121316,  64906
   1084,  55078,  55975,  54270, 119321
   1212,  84156,  83276,  84161, 119426
   1306,  87504,  87508,  87510, 119500
   1314,  53371,  52521,  53370, 119508
   1331,  72119,  68137, 131704,  69165
   1476,  77799,  75919,  74963, 119629
   1500,  94045,  94044,  94892, 119647
   1501,  94044,  94892, 119647,  94889
   1607,  75967,  77853,  75015,  71170
   1720,  57938,  57939,  56036, 119797
   1902,  49896,  49094,  51696, 119935
   1970,  37457,  38344,  38350, 119987
** ... 36095 like lines cut
*Elset, elset=Grain4
    334,    493,    515,    521,    522,    622,    754,    896,   1084,   1212,   1306,   1314,   1331,   1476,   1500,   1501
   1607,   1720,   1902,   1970,   2082,   2101,   2314,   2502,   2606,   2684,   2792,   2885,   2893,   2959,   2970,   2975
   3225,   3536,   3652,   3722,   3774,   3785,   3830,   3846,   3874,   3944,   4091,   4094,   4216,   4289,   4311,   4454
   4484,   4553,   4589,   4637,   4638,   4639,   4722,   4751,   4909,   5016,   5038,   5077,   5099,   5413,   5414,   5576
   5697,   5698,   5716,   5717,   5736,   5963,   6002,   6219,   6220,   6243,   6289,   6290,   6323,   6426,   6552,   6553
   6554,   6582,   6583,   6684,   6723,   7004,   7256,   7424,   7455,   7456,   7606,   7737,   7889,   7926,   7927,   8041
   8081,   8197,   8246,   8278,   8322,   8325,   8339,   8414,   8417,   8581,   8605,   8779,   8850,   8906,   9025,   9066
   9098,   9261,   9283,   9350,   9363,   9386,   9600,   9644,   9656,   9688,   9853,   9889,   9948,   9949,   9991,  10251
  10273,  10454,  10471,  10490,  10508,  10539,  10557,  10632,  10645,  10789,  10856,  10857,  10895,  10896,  11191,  11283
  11429,  11471,  11472,  11473,  11493,  11532,  11586,  11610,  11611,  11612,  11613,  11614,  11615,  11616,  11617,  11618
  11619,  11794,  11908,  11909,  11964,  11966,  11979,  12150,  12275,  12285,  12486,  12487,  12534,  12581,  12582,  12590
  12622,  12638,  12714,  12722,  12794,  12795,  12844,  12874,  12937,  12965,  13032,  13146,  13150,  13242,  13243,  13271
  13324,  13400,  13426,  13466,  13494,  13528,  13567,  13619,  13647,  13794,  14164,  14354,  14375,  14487,  14560,  14624
  14760,  14761,  14947,  14960,  14965,  14968,  14977,  14978,  14979,  14980,  15127,  15281,  15354,  15412,  15478,  15567
  16064,  16338,  16403,  16522,  16631,  16672,  16673,  16713,  16742,  16804,  16886,  17039,  17080,  17081,  17304,  17305
  17306,  17519,  17613,  17614,  17615,  17616,  17617,  17790,  17791,  17792,  17798,  17809,  18405,  19178,  19343,  19346
  19357,  19530,  19531,  19532,  19695,  19696,  19697,  19698,  19699,  19733,  19734,  19774,  19775,  19776,  19799,  20047
  20107,  20108,  20291,  20619,  20666,  20783,  20839,  20840,  20841,  20916,  21077,  21078,  21079,  21080,  21138,  21205
  21514,  21515,  21570,  21698,  21716,  21717,  21739,  21777,  21946,  21947,  21948,  21981,  22013,  22014,  22131,  22132
  22195,  22256,  22282,  22349,  22350,  22359,  22360,  22361,  22362,  22363,  22425,  22539,  22715,  22799,  22809,  22914
** ... 2238 like lines cut
*Nset, nset=Grain4_Nodes
  37455,  37456,  37457,  37458,  37460,  37461,  37462,  37463,  37464,  37465,  37466,  37468,  37469,  38336,  38337,  38339
  38340,  38341,  38342,  38344,  38345,  38348,  38349,  38350,  38351,  38353,  38356,  39342,  39343,  39350,  39351,  39352
  39355,  39356,  39359,  39361,  39365,  39369,  39371,  39375,  39381,  39382,  39384,  39386,  39388,  39389,  39390,  39391
  40252,  40256,  40257,  40260,  40261,  40278,  40281,  40282,  40285,  40292,  40300,  41284,  41285,  41287,  41288,  41292
  41293,  41294,  41304,  41309,  41312,  41324,  41326,  41328,  41329,  41334,  41335,  41339,  41340,  41342,  41350,  41352
  41353,  41354,  41356,  41358,  42180,  42181,  42182,  42191,  42194,  42203,  42208,  42209,  42216,  42221,  42222,  42225
  42228,  42236,  42237,  42239,  42240,  42241,  42244,  42245,  42246,  42248,  43241,  43242,  43243,  43246,  43263,  43270
  43283,  43286,  43296,  43297,  43303,  43308,  43312,  43313,  43320,  43321,  43322,  43328,  43329,  44188,  44189,  44194
  44199,  44201,  44205,  44207,  44212,  44216,  44229,  44236,  44238,  44251,  44255,  44257,  44263,  44267,  44273,  44274
  44275,  44276,  44277,  44278,  45170,  45171,  45172,  45177,  45179,  45191,  45195,  45210,  45214,  45223,  45232,  45235
  45254,  45255,  45264,  45265,  45279,  45281,  45284,  45285,  45286,  45287,  45288,  46164,  46168,  46169,  46173,  46180
  46197,  46198,  46199,  46206,  46209,  46219,  46223,  46233,  46252,  46253,  46254,  46255,  46256,  46257,  47194,  47195
  47200,  47201,  47204,  47205,  47210,  47212,  47215,  47220,  47224,  47226,  47228,  47229,  47230,  47231,  47232,  47233
  47234,  47235,  47236,  47237,  47238,  47239,  47240,  48105,  48106,  48107,  48116,  48117,  48122,  48128,  48129,  48132
  48133,  48136,  48138,  48139,  48140,  48141,  48142,  48143,  48144,  48145,  48146,  48147,  48148,  48149,  48150,  48151
  48152,  48153,  49042,  49043,  49044,  49045,  49050,  49051,  49052,  49055,  49057,  49062,  49064,  49065,  49066,  49074
  49077,  49086,  49087,  49089,  49090,  49091,  49092,  49093,  49094,  49095,  49096,  49097,  49098,  49859,  49860,  49861
  49872,  49878,  49881,  49886,  49887,  49888,  49889,  49890,  49891,  49892,  49893,  49894,  49895,  49896,  49897,  49898
  49899,  49900,  49901,  50773,  50774,  50775,  50776,  50779,  50783,  50789,  50804,  50805,  50807,  50816,  50820,  50821
  50822,  50823,  50824,  50825,  50826,  50827,  51641,  51642,  51643,  51645,  51647,  51651,  51656,  51657,  51658,  51662
** ... 101 like lines cut
** Section: Grain
*Solid Section, elset=Grain4, material=Sand
,
*End Part
**  
*Part, name=Plate
*Node
      1,           1.,           1.,  0.100000001
      2,           1.,  0.899999976,  0.100000001
      3,           1.,  0.800000012,  0.100000001
      4,           1.,  0.699999988,  0.100000001
      5,           1.,  0.600000024,  0.100000001
      6,           1.,          0.5,  0.100000001
      7,           1.,  0.400000006,  0.100000001
      8,           1.,  0.300000012,  0.100000001
      9,           1.,  0.200000003,  0.100000001
     10,           1.,  0.100000001,  0.100000001
     11,           1.,           0.,  0.100000001
     12,           1.,           1.,           0.
     13,           1.,  0.899999976,           0.
     14,           1.,  0.800000012,           0.
     15,           1.,  0.699999988,           0.
     16,           1.,  0.600000024,           0.
     17,           1.,          0.5,           0.
     18,           1.,  0.400000006,           0.
     19,           1.,  0.300000012,           0.
     20,           1.,  0.200000003,           0.
** ... 222 like lines cut
*Element, type=C3D8R
  1,  23,  24,  35,  34,   1,   2,  13,  12
  2,  24,  25,  36,  35,   2,   3,  14,  13
  3,  25,  26,  37,  36,   3,   4,  15,  14
  4,  26,  27,  38,  37,   4,   5,  16,  15
  5,  27,  28,  39,  38,   5,   6,  17,  16
  6,  28,  29,  40,  39,   6,   7,  18,  17
  7,  29,  30,  41,  40,   7,   8,  19,  18
  8,  30,  31,  42,  41,   8,   9,  20,  19
  9,  31,  32,  43,  42,   9,  10,  21,  20
 10,  32,  33,  44,  43,  10,  11,  22,  21
 11,  45,  46,  57,  56,  23,  24,  35,  34
 12,  46,  47,  58,  57,  24,  25,  36,  35
 13,  47,  48,  59,  58,  25,  26,  37,  36
 14,  48,  49,  60,  59,  26,  27,  38,  37
 15,  49,  50,  61,  60,  27,  28,  39,  38
 16,  50,  51,  62,  61,  28,  29,  40,  39
 17,  51,  52,  63,  62,  29,  30,  41,  40
 18,  52,  53,  64,  63,  30,  31,  42,  41
 19,  53,  54,  65,  64,  31,  32,  43,  42
 20,  54,  55,  66,  65,  32,  33,  44,  43
** ... 80 like lines cut
*Nset, nset=_PickedSet3, internal, generate
   1,  242,    1
*Elset, elset=_PickedSet3, internal, generate
   1,  100,    1
** Section: Grain
*Solid Section, elset=_PickedSet3, material=Sand
,
*End Part
**  
**
** ASSEMBLY
**
*Assembly, name=Assembly
**  
*Instance, name=Grain3-1, part=Grain3
       -7.05,         -7.9,    -0.435751
*End Instance
**  
*Instance, name=Grain4-1, part=Grain4
       -7.05,         -7.9,    -0.435751
*End Instance
**  
*Instance, name=Plate-1, part=Plate
*End Instance
**  
*Instance, name=Plate-2, part=Plate
          0.,           0.,         0.93
*End Instance
**  
*Nset, nset=_PickedSet15, internal, instance=Plate-1
  12,  13,  14,  15,  16,  17,  18,  19,  20,  21,  22,  34,  35,  36,  37,  38
  39,  40,  41,  42,  43,  44,  56,  57,  58,  59,  60,  61,  62,  63,  64,  65
  66,  78,  79,  80,  81,  82,  83,  84,  85,  86,  87,  88, 100, 101, 102, 103
 104, 105, 106, 107, 108, 109, 110, 122, 123, 124, 125, 126, 127, 128, 129, 130
 131, 132, 144, 145, 146, 147, 148, 149, 150, 151, 152, 153, 154, 166, 167, 168
 169, 170, 171, 172, 173, 174, 175, 176, 188, 189, 190, 191, 192, 193, 194, 195
 196, 197, 198, 210, 211, 212, 213, 214, 215, 216, 217, 218, 219, 220, 232, 233
 234, 235, 236, 237, 238, 239, 240, 241, 242
*Elset, elset=_PickedSet15, internal, instance=Plate-1, generate
   1,  100,    1
*Nset, nset=_PickedSet16, internal, instance=Plate-2
   1,   2,   3,   4,   5,   6,   7,   8,   9,  10,  11,  23,  24,  25,  26,  27
  28,  29,  30,  31,  32,  33,  45,  46,  47,  48,  49,  50,  51,  52,  53,  54
  55,  67,  68,  69,  70,  71,  72,  73,  74,  75,  76,  77,  89,  90,  91,  92
  93,  94,  95,  96,  97,  98,  99, 111, 112, 113, 114, 115, 116, 117, 118, 119
 120, 121, 133, 134, 135, 136, 137, 138, 139, 140, 141, 142, 143, 155, 156, 157
 158, 159, 160, 161, 162, 163, 164, 165, 177, 178, 179, 180, 181, 182, 183, 184
 185, 186, 187, 199, 200, 201, 202, 203, 204, 205, 206, 207, 208, 209, 221, 222
 223, 224, 225, 226, 227, 228, 229, 230, 231
*Elset, elset=_PickedSet16, internal, instance=Plate-2, generate
   1,  100,    1
*End Assembly
*Amplitude, name=Amp-1
             0.,              0.,              1.,              1.
** 
** MATERIALS
** 
*Material, name=Rigid
*Density
 2e-06,
*Elastic
8000., 0.3
*Material, name=Sand
*Density
 2e-06,
*Elastic
80., 0.3
** 
** INTERACTION PROPERTIES
** 
*Surface Interaction, name=IntProp-1
*Friction
0.,
*Surface Behavior, pressure-overclosure=HARD
** 
** INTERACTIONS
** 
** Interaction: Interaction
*Contact, op=NEW
*Contact Inclusions, ALL EXTERIOR
*Contact Property Assignment
 ,  , IntProp-1
** ----------------------------------------------------------------
** 
** STEP: Step-1
** 
*Step, name=Step-1
*Dynamic, Explicit
, 1.
*Bulk Viscosity
0.06, 1.2
** 
** BOUNDARY CONDITIONS
** 
** Name: BottomPlate Type: Displacement/Rotation
*Boundary
_PickedSet15, 1, 1
_PickedSet15, 2, 2
_PickedSet15, 3, 3
_PickedSet15, 4, 4
_PickedSet15, 5, 5
_PickedSet15, 6, 6
** Name: TopPlate Type: Displacement/Rotation
*Boundary, amplitude=Amp-1
_PickedSet16, 1, 1
_PickedSet16, 2, 2
_PickedSet16, 3, 3, -0.05
_PickedSet16, 4, 4
_PickedSet16, 5, 5
_PickedSet16, 6, 6
** 
** OUTPUT REQUESTS
** 
*Restart, write, number interval=1, time marks=NO
** 
** FIELD OUTPUT: F-Output-1
** 
*Output, field, variable=PRESELECT
** 
** HISTORY OUTPUT: H-Output-1
** 
*Output, history, variable=PRESELECT
*End Step
