*Heading
** Job name: TwoGrain_Shell Model name: Tomography_12212012
** Generated by: Abaqus/CAE 6.11-1
*Preprint, echo=NO, model=NO, history=NO, contact=NO
**
** PARTS
**
*Part, name=Grain3
*Node
  98155,   7.53151131,   8.29307938,   0.99699086
  98935,   7.54703999,   8.28299427,   1.00326538
  98936,   7.51670837,   8.28053379,   1.00601006
  98942,   7.57481194,   8.30208969,   1.00326574
  98943,   7.55051136,   8.30729675,   1.00326574
  98945,   7.49305725,   8.30244255,   1.00465393
  98946,   7.49800491,   8.32595539,   1.00326574
  98947,   7.51925707,   8.30957794,   1.00213242
  98949,   7.47760963,   8.31771088,   1.00326574
  98950,   7.53343153,   8.31898308,   1.00332475
  98951,   7.54704237,   8.31771278,   1.00326622
  98952,   7.51449442,   8.33506775,   1.00326574
  98953,   7.56441164,   8.33938408,   1.00845623
  98954,   7.47876644,   8.34548187,   1.00326574
  98955,   7.49843884,   8.35936928,   1.00326574
  98956,   7.48038578,   8.35659218,   1.01437521
  98957,    7.5033989,   8.37127113,   1.00822437
  98958,   7.53005791,   8.36339951,   1.00317883
  98963,   7.52593422,   8.37354565,   1.01020384
  99761,   7.53141212,   8.27158546,   1.00488853
** ... 1404 like lines cut
*Element, type=S3
   1, 102810, 102060, 102813
   2, 102810, 103561, 102060
   3, 118646, 118620, 118649
   4, 118646, 118623, 118620
   5, 118486, 118402, 118403
   6, 118486, 118403, 118487
   7, 101296, 101299, 100491
   8, 118588, 118553, 118586
   9, 111943, 113530, 111942
  10, 118617, 118620, 118619
  11, 118619, 118620, 118623
  12, 108766, 108765, 108302
  13, 113135, 113132, 112752
  14, 102785, 105030, 103534
  15, 105795, 105064, 108319
  16, 113146, 113920, 113531
  17, 113531, 113920, 113530
  18, 113530, 112775, 113531
  19, 113531, 112775, 113146
  20, 115381, 114701, 115062
** ... 2824 like lines cut
*Elset, elset=_PickedSet22, internal, generate
    1,  2844,     1
** Section: Grain_Shell
*Shell Section, elset=_PickedSet22, material=Sand
0.035, 5
*End Part
**  
*Part, name=Grain4
*Node
  37455,   7.52635002,   8.36133385,  0.536751032
  37456,   7.51926804,   8.38713932,   0.53808403
  37457,   7.53373003,   8.38178539,  0.538195789
  37458,   7.51232433,   8.36631107,  0.545026779
  37460,   7.57503414,   8.40114594,  0.537616372
  37461,   7.49693966,   8.39732361,  0.547905684
  37462,   7.51579666,   8.40797043,  0.538083673
  37463,   7.53872204,   8.42451954,  0.538958073
  37464,   7.55033875,   8.41831684,  0.538311958
  37465,   7.56350899,   8.42757702,  0.547099113
  37466,   7.50768042,   8.42630672,  0.537746727
  37468,   7.49496937,   8.42185974,  0.548498154
  37469,   7.53430843,   8.43885994,  0.549299955
  38336,    7.5097065,   8.32833099,  0.547597885
  38337,   7.55653572,   8.33893585,  0.548004627
  38339,   7.49625015,   8.35806847,  0.547212839
  38340,   7.49374676,   8.33854198,  0.549720764
  38341,   7.52650261,   8.35294533,  0.544692636
  38342,   7.54009628,   8.35936928,   0.54502672
  38344,   7.54039097,     8.377841,  0.545072496
** ... 1903 like lines cut
*Element, type=S3
   1,  52527,  52526,  54292
   2,  52512,  54274,  54270
   3,  66054,  63978,  63976
   4,  63980,  67082,  64914
   5,  49872,  49066,  49065
   6,  97273,  98190,  98192
   7,  96520,  96516,  98161
   8,  55078,  54270,  55975
   9,  84156,  84161,  83276
  10,  87504,  87510,  87508
  11,  53371,  53370,  52521
  12,  72119,  68137,  69165
  13,  77799,  74963,  75919
  14,  94045,  94892,  94044
  15,  94044,  94892,  94889
  16,  75967,  75015,  77853
  17,  75967,  71170,  75015
  18,  57938,  56036,  57939
  19,  49896,  51696,  49094
  20,  37457,  38350,  38344
** ... 3822 like lines cut
*Elset, elset=_PickedSet20, internal, generate
    1,  3842,     1
** Section: Grain_Shell
*Shell Section, elset=_PickedSet20, material=Sand
0.035, 5
*End Part
**  
*Part, name=Plate
*Node
      1,           1.,           1.,  0.100000001
      2,           1.,  0.899999976,  0.100000001
      3,           1.,  0.800000012,  0.100000001
      4,           1.,  0.699999988,  0.100000001
      5,           1.,  0.600000024,  0.100000001
      6,           1.,          0.5,  0.100000001
      7,           1.,  0.400000006,  0.100000001
      8,           1.,  0.300000012,  0.100000001
      9,           1.,  0.200000003,  0.100000001
     10,           1.,  0.100000001,  0.100000001
     11,           1.,           0.,  0.100000001
     12,           1.,           1.,           0.
     13,           1.,  0.899999976,           0.
     14,           1.,  0.800000012,           0.
     15,           1.,  0.699999988,           0.
     16,           1.,  0.600000024,           0.
     17,           1.,          0.5,           0.
     18,           1.,  0.400000006,           0.
     19,           1.,  0.300000012,           0.
     20,           1.,  0.200000003,           0.
** ... 222 like lines cut
*Element, type=C3D8R
  1,  23,  24,  35,  34,   1,   2,  13,  12
  2,  24,  25,  36,  35,   2,   3,  14,  13
  3,  25,  26,  37,  36,   3,   4,  15,  14
  4,  26,  27,  38,  37,   4,   5,  16,  15
  5,  27,  28,  39,  38,   5,   6,  17,  16
  6,  28,  29,  40,  39,   6,   7,  18,  17
  7,  29,  30,  41,  40,   7,   8,  19,  18
  8,  30,  31,  42,  41,   8,   9,  20,  19
  9,  31,  32,  43,  42,   9,  10,  21,  20
 10,  32,  33,  44,  43,  10,  11,  22,  21
 11,  45,  46,  57,  56,  23,  24,  35,  34
 12,  46,  47,  58,  57,  24,  25,  36,  35
 13,  47,  48,  59,  58,  25,  26,  37,  36
 14,  48,  49,  60,  59,  26,  27,  38,  37
 15,  49,  50,  61,  60,  27,  28,  39,  38
 16,  50,  51,  62,  61,  28,  29,  40,  39
 17,  51,  52,  63,  62,  29,  30,  41,  40
 18,  52,  53,  64,  63,  30,  31,  42,  41
 19,  53,  54,  65,  64,  31,  32,  43,  42
 20,  54,  55,  66,  65,  32,  33,  44,  43
** ... 80 like lines cut
*Nset, nset=_PickedSet3, internal, generate
   1,  242,    1
*Elset, elset=_PickedSet3, internal, generate
   1,  100,    1
** Section: Grain
*Solid Section, elset=_PickedSet3, material=Sand
,
*End Part
**  
**
** ASSEMBLY
**
*Assembly, name=Assembly
**  
*Instance, name=Plate-1, part=Plate
*End Instance
**  
*Instance, name=Plate-2, part=Plate
          0.,           0.,         0.93
*End Instance
**  
*Instance, name=Grain3-1, part=Grain3
   -7.111942,     -7.90591,       -0.435
*End Instance
**  
*Instance, name=Grain4-1, part=Grain4
   -7.111942,     -7.90591,       -0.435
*End Instance
**  
*Nset, nset=_PickedSet15, internal, instance=Plate-1
  12,  13,  14,  15,  16,  17,  18,  19,  20,  21,  22,  34,  35,  36,  37,  38
  39,  40,  41,  42,  43,  44,  56,  57,  58,  59,  60,  61,  62,  63,  64,  65
  66,  78,  79,  80,  81,  82,  83,  84,  85,  86,  87,  88, 100, 101, 102, 103
 104, 105, 106, 107, 108, 109, 110, 122, 123, 124, 125, 126, 127, 128, 129, 130
 131, 132, 144, 145, 146, 147, 148, 149, 150, 151, 152, 153, 154, 166, 167, 168
 169, 170, 171, 172, 173, 174, 175, 176, 188, 189, 190, 191, 192, 193, 194, 195
 196, 197, 198, 210, 211, 212, 213, 214, 215, 216, 217, 218, 219, 220, 232, 233
 234, 235, 236, 237, 238, 239, 240, 241, 242
*Elset, elset=_PickedSet15, internal, instance=Plate-1, generate
   1,  100,    1
*Nset, nset=_PickedSet16, internal, instance=Plate-2
   1,   2,   3,   4,   5,   6,   7,   8,   9,  10,  11,  23,  24,  25,  26,  27
  28,  29,  30,  31,  32,  33,  45,  46,  47,  48,  49,  50,  51,  52,  53,  54
  55,  67,  68,  69,  70,  71,  72,  73,  74,  75,  76,  77,  89,  90,  91,  92
  93,  94,  95,  96,  97,  98,  99, 111, 112, 113, 114, 115, 116, 117, 118, 119
 120, 121, 133, 134, 135, 136, 137, 138, 139, 140, 141, 142, 143, 155, 156, 157
 158, 159, 160, 161, 162, 163, 164, 165, 177, 178, 179, 180, 181, 182, 183, 184
 185, 186, 187, 199, 200, 201, 202, 203, 204, 205, 206, 207, 208, 209, 221, 222
 223, 224, 225, 226, 227, 228, 229, 230, 231
*Elset, elset=_PickedSet16, internal, instance=Plate-2, generate
   1,  100,    1
*End Assembly
*Amplitude, name=Amp-1
             0.,              0.,              1.,              1.
** 
** MATERIALS
** 
*Material, name=Rigid
*Density
 2e-06,
*Elastic
8000., 0.3
*Material, name=Sand
*Density
 2e-06,
*Elastic
80., 0.3
** 
** INTERACTION PROPERTIES
** 
*Surface Interaction, name=IntProp-1
*Friction
0.,
*Surface Behavior, pressure-overclosure=HARD
** 
** INTERACTIONS
** 
** Interaction: Interaction
*Contact, op=NEW
*Contact Inclusions, ALL EXTERIOR
*Contact Property Assignment
 ,  , IntProp-1
** ----------------------------------------------------------------
** 
** STEP: Step-1
** 
*Step, name=Step-1
*Dynamic, Explicit
, 1.
*Bulk Viscosity
0.06, 1.2
** 
** BOUNDARY CONDITIONS
** 
** Name: BottomPlate Type: Displacement/Rotation
*Boundary
_PickedSet15, 1, 1
_PickedSet15, 2, 2
_PickedSet15, 3, 3
_PickedSet15, 4, 4
_PickedSet15, 5, 5
_PickedSet15, 6, 6
** Name: TopPlate Type: Displacement/Rotation
*Boundary, amplitude=Amp-1
_PickedSet16, 1, 1
_PickedSet16, 2, 2
_PickedSet16, 3, 3, -0.05
_PickedSet16, 4, 4
_PickedSet16, 5, 5
_PickedSet16, 6, 6
** 
** OUTPUT REQUESTS
** 
*Restart, write, number interval=1, time marks=NO
** 
** FIELD OUTPUT: F-Output-1
** 
*Output, field, variable=PRESELECT
** 
** HISTORY OUTPUT: H-Output-1
** 
*Output, history, variable=PRESELECT
*End Step
